20180601/05node_singlephase_balanced_oscillation_03.dss
Clear

! Note that this is a 3-wire delta system. 
! Node voltages in OpenDSS are normally line-ground and may give strange-looking results
! Be careful if you put line-neutral connected loads or other devices on this circuit.

New object=circuit.ieee37
~ basekv=230 pu=1.00 MVAsc3=200000 MVAsc1=210000

! Substation Transformer
New Transformer.SubXF Phases=1 Windings=2 Xhl=8
~ wdg=1 bus=sourcebus conn=Wye kv=230 kva=2500 %r=1
~ wdg=2 bus=A01 conn=Wye kv=4.8 kva=2500 %r=1

! Load Transformer
! New Transformer.XFM1 Phases=3 Windings=2 Xhl=1.81
! ~ wdg=1 bus=709 conn=Delta kv=4.80 kva=500 %r=0.045
! ~ wdg=2 bus=775 conn=Delta kv=0.48 kva=500 %r=0.045

! import line codes with phase impedance matrices
! Redirect IEEELineCodes.dss

New linecode.721bal nphases=1 BaseFreq=60
~ rmatrix = [0.015 | 0.0 0.0 | 0.0 0.0 0.0]
~ xmatrix = [0.010 | -0.0 0.0 | -0.0 -0.0 0.0]
! ~ cmatrix = [80.0 | 0 0.0 | 0 0 0.0]

New linecode.722bal nphases=1 BaseFreq=60
~ rmatrix = [0.030 | 0.0 0.0 | 0.0 0.0 0.0]
~ xmatrix = [0.020 | -1.0 0.0 | -0.0 -0.0 0.0]
! ~ cmatrix = [65.0 | 0 0.0 | 0 0 0.0]

! Lines
New Line.line_A01_A02 Phases=1 Bus1=A01.1 Bus2=A02.1 LineCode=721bal Length=1.00
New Line.line_A02_A03 Phases=1 Bus1=A02.1 Bus2=A03.1 LineCode=722bal Length=1.00
New Line.line_A03_A04 Phases=1 Bus1=A03.1 Bus2=A04.1 LineCode=722bal Length=1.00
New Line.line_A03_A05 Phases=1 Bus1=A03.1 Bus2=A05.1 LineCode=722bal Length=1.00
New Line.line_A05_A06 Phases=1 Bus1=A05.1 Bus2=A06.1 LineCode=722bal Length=1.00

! spot loads
New Load.load_A02_a Bus1=A02.1 Phases=1 Conn=Wye Model=1 kV=2.77128 kW=100.0 kVAR=25.0
! New Load.SA02b Bus1=A02.2 Phases=1 Conn=Wye Model=1 kV=2.77128 kW=140.0 kVAR=70.0
! New Load.SA02c Bus1=A02.3 Phases=1 Conn=Wye Model=1 kV=2.77128 kW=140.0 kVAR=70.0

New Load.load_A03_a Bus1=A03.1 Phases=1 Conn=Wye Model=1 kV=2.77128 kW=100.0 kVAR=25.0
! New Load.SA03b Bus1=A03.2 Phases=1 Conn=Wye Model=1 kV=2.77128 kW=300.0 kVAR=100.0
! New Load.SA03c Bus1=A03.3 Phases=1 Conn=Wye Model=1 kV=2.77128 kW=300.0 kVAR=100.0

New Load.load_A04_a Bus1=A04.1 Phases=1 Conn=Wye Model=1 kV=2.77128 kW=100.0 kVAR=25.0
! New Load.SA04b Bus1=A04.2 Phases=1 Conn=Wye Model=1 kV=2.77128 kW=300.0 kVAR=100.0
! New Load.SA04c Bus1=A04.3 Phases=1 Conn=Wye Model=1 kV=2.77128 kW=300.0 kVAR=100.0

! New Load.load_A05_a Bus1=A05.1 Phases=1 Conn=Wye Model=1 kV=2.77128 kW=100.0 kVAR=25.0
! New Load.SA05b Bus1=A05.2 Phases=1 Conn=Wye Model=1 kV=2.77128 kW=300.0 kVAR=100.0
! New Load.SA05c Bus1=A05.3 Phases=1 Conn=Wye Model=1 kV=2.77128 kW=300.0 kVAR=100.0

New Load.load_A06_a Bus1=A06.1 Phases=1 Conn=Wye Model=6 kV=2.77128 kW=100.0 kVAR=25.0
! New Load.SA06b Bus1=A06.2 Phases=1 Conn=Wye Model=1 kV=2.77128 kW=300.0 kVAR=100.0
! New Load.SA06c Bus1=A06.3 Phases=1 Conn=Wye Model=1 kV=2.77128 kW=300.0 kVAR=100.0

! New Load.SA06abc Bus1=A06.1.2.3 Phases=1 Conn=Wye Model=1 kV=2.77128 kW=140.0 kVAR=70.0

!
! New Load.inv_A01_a Bus1=A01.1 Phases=1 Conn=Wye Model=1 kV=2.77128 kW=0.0 kVAR=0.0
! New Load.inv_A02_a Bus1=A02.1 Phases=1 Conn=Wye Model=1 kV=2.77128 kW=0.0 kVAR=0.0
! New Load.inv_A03_a Bus1=A03.1 Phases=1 Conn=Wye Model=1 kV=2.77128 kW=0.0 kVAR=0.0
! New Load.inv_A04_a Bus1=A04.1 Phases=1 Conn=Wye Model=1 kV=2.77128 kW=0.0 kVAR=0.0
! New Load.inv_A05_a Bus1=A05.1 Phases=1 Conn=Wye Model=1 kV=2.77128 kW=0.0 kVAR=0.0
! New Load.inv_A06_a Bus1=A06.1 Phases=1 Conn=Wye Model=1 kV=2.77128 kW=0.0 kVAR=0.0

!
! New Load.esc_A01_a Bus1=A01.1 Phases=1 Conn=Wye Model=1 kV=2.77128 kW=0.0 kVAR=0.0
! New Load.esc_A02_a Bus1=A02.1 Phases=1 Conn=Wye Model=1 kV=2.77128 kW=0.0 kVAR=0.0
! New Load.esc_A03_a Bus1=A03.1 Phases=1 Conn=Wye Model=1 kV=2.77128 kW=0.0 kVAR=0.0
! New Load.esc_A04_a Bus1=A04.1 Phases=1 Conn=Wye Model=1 kV=2.77128 kW=0.0 kVAR=0.0
! New Load.esc_A05_a Bus1=A05.1 Phases=1 Conn=Wye Model=1 kV=2.77128 kW=0.0 kVAR=0.0
! New Load.esc_A06_a Bus1=A06.1 Phases=1 Conn=Wye Model=1 kV=2.77128 kW=0.0 kVAR=0.0

Set VoltageBases = "230,4.8"
CalcVoltageBases
! BusCoords IEEE37_BusXY.csv

! solve mode=direct
set maxiterations=100
solve

! show voltages LL Nodes
! show currents residual=y elements
! show powers kva elements
! show taps